191
Cyclodextrine_ligand_names_-17.0.pdb
C         54.62300        8.02100       42.68200
C         55.33500        6.92000       43.14300
C         55.22400        9.36600       42.73500
C         56.57800        7.13200       43.81100
C         56.56800        9.42400       43.15300
C         57.14700        8.34300       43.80200
C         51.53700        7.15500       39.85100
C         51.73600        6.23000       41.00800
H         50.94800        6.38200       41.75500
C         53.17600        6.40400       41.60400
H         54.00200        6.25700       40.92700
C         53.27500        7.84200       42.13300
H         52.56800        7.97200       42.93300
C         50.15900        6.75000       39.31600
H         49.45000        7.20500       40.01500
C         51.58100        8.53500       40.43000
H         50.78600        8.51900       41.18700
H         51.28600        9.28400       39.71700
C         51.38600        4.88700       40.35000
H         51.22400        4.05900       40.99300
H         52.31700        4.60000       39.78900
C         52.90200        8.90400       41.08100
H         53.69000        8.80800       40.27900
H         52.80600        9.92800       41.45300
C         50.26800        5.20900       39.35600
H         50.46200        4.76600       38.33400
H         49.31600        4.87600       39.59800
C         53.46300        5.50300       42.82700
H         53.03500        4.53000       42.58100
H         53.11400        5.67900       43.80500
C         52.55000        7.00600       38.71200
H         52.51200        6.12200       38.09100
H         53.61700        7.06800       39.05600
H         52.33200        7.75600       37.95300
C         54.87400        5.54500       42.95200
H         55.33100        4.96700       42.13700
H         55.02500        5.05300       43.95700
H         54.64900       10.17300       42.16000
H         57.11000        6.26300       44.12500
H         57.06600       10.42100       43.12000
O         49.90100        7.13900       38.00000
O         58.47400        8.53100       44.14900
H         49.98000        8.11800       37.92900
H         58.73900        7.69500       44.55400
C         39.84800       10.79100       31.36400
H         39.31100       11.69400       31.74400
C         39.46200       10.68000       29.85900
H         39.74400       11.59100       29.36100
C         40.06300        9.42600       29.23500
H         39.52900        8.51700       29.65200
C         41.56100        9.30500       29.49600
H         42.02300        9.81800       28.66000
C         41.94700        9.76300       30.89300
H         41.89700        8.84700       31.46000
C         43.42100       10.04900       30.90500
H         44.01000        9.10500       30.88600
H         43.68400       10.45800       31.88900
C         43.09800        7.78500       28.51800
H         43.63900        8.71800       28.25400
C         42.66800        7.07300       27.19200
H         43.49700        6.92200       26.57300
C         42.11400        5.68000       27.42300
H         41.14600        5.75600       27.92900
C         43.11700        4.82500       28.25200
H         43.96100        4.69800       27.58400
C         43.45400        5.64400       29.52000
H         42.51100        5.73800       30.08800
C         44.40400        4.81300       30.38000
H         43.97300        3.93000       30.85700
H         44.76600        5.46200       31.17400
C         42.93000        2.40200       27.87700
H         43.43000        2.84100       26.95600
C         41.82400        1.40900       27.45300
H         42.10400        0.64500       26.79200
C         41.16600        0.71300       28.66300
H         40.54000        1.42200       29.19800
C         42.22100        0.11700       29.53000
H         42.64200       -0.78200       28.97600
C         43.19400        1.21800       29.87700
H         42.54300        1.98800       30.27900
C         44.19500        0.62100       30.88500
H         43.68300        0.57400       31.84800
H         45.05400        1.28400       31.12700
C         41.50800       -1.67600       31.03300
H         42.15500       -2.12000       30.31100
C         40.12900       -2.37400       31.05700
H         40.19000       -3.39400       31.39400
C         39.16000       -1.64400       32.01300
H         38.93800       -0.69200       31.57100
C         39.84500       -1.57600       33.41800
H         39.80000       -2.59500       33.82200
C         41.32300       -1.11800       33.26600
H         41.40000       -0.05800       33.07500
C         42.05900       -1.15000       34.55400
H         41.62900       -0.46300       35.22400
H         43.06300       -0.80900       34.37400
C         38.31900       -1.21400       35.19400
H         38.28700       -2.28100       35.22500
C         36.86000       -0.67300       35.11600
H         36.36500       -1.05800       35.98000
C         36.84600        0.87900       35.20300
H         37.28500        1.29600       34.26800
C         37.47500        1.44400       36.42900
H         36.83100        1.35800       37.31200
C         38.81300        0.69400       36.64300
H         39.56700        1.11700       35.99800
C         39.27300        1.04200       38.05600
H         38.87600        0.31900       38.79500
H         38.95000        1.98500       38.41100
C         37.22800        3.67600       37.35300
H         37.21100        3.02300       38.16700
C         35.88800        4.44100       37.18300
H         35.52100        4.93300       38.08300
C         36.08700        5.48800       36.06000
H         36.22600        5.00500       35.04100
C         37.26700        6.44500       36.41500
H         37.02800        6.98800       37.37000
C         38.46500        5.51300       36.53700
H         38.53900        4.95200       35.56700
C         39.66800        6.41700       36.79800
H         39.88500        7.10100       35.98800
H         40.59900        5.82100       37.10900
C         37.09600        8.63400       35.43700
H         36.36900        8.70500       36.24900
C         36.41900        9.11000       34.13900
H         36.05000       10.14600       34.20000
C         37.36500        9.25700       32.97200
H         37.56700        8.31400       32.70300
C         38.67800        9.94000       33.29700
H         38.50600       10.97700       33.38600
C         39.27200        9.35600       34.63400
H         39.58700        8.31200       34.56600
C         40.62800       10.13200       34.97800
H         41.40700        9.79500       34.26300
H         41.01000        9.94500       35.97900
O         38.04300       10.64800       29.62900
O         39.85700        9.47900       27.79700
O         41.94700        7.93700       29.38200
O         41.19700       10.88200       31.42000
O         43.79000       10.91500       29.91300
O         41.68700        7.90400       26.48800
O         41.81400        5.03400       26.12800
O         42.48500        3.57100       28.67500
O         44.02200        6.96100       29.20100
O         45.53600        4.33200       29.61900
O         40.85200        2.14300       26.71700
O         40.25500       -0.30400       28.18500
O         41.41700       -0.24300       30.73500
O         43.90400        1.75200       28.75000
O         44.70100       -0.65500       30.50500
O         39.52600       -2.57300       29.74900
O         37.84400       -2.29300       32.06400
O         39.14100       -0.58600       34.19300
O         42.10300       -1.81100       32.30000
O         42.07200       -2.44900       35.17400
O         36.22800       -1.24300       33.93800
O         35.48700        1.33700       35.12200
O         37.59300        2.85500       36.23500
O         38.84700       -0.77800       36.46700
O         40.69900        1.06000       38.21500
O         34.82400        3.52500       36.84200
O         34.90800        6.31000       35.94600
O         37.54100        7.29000       35.26400
O         38.30800        4.58600       37.60900
O         39.36400        7.21000       37.94100
O         35.23600        8.31400       33.86200
O         36.67100        9.88900       31.88500
O         39.51100        9.63700       32.13900
O         38.30900        9.41300       35.79000
O         40.50100       11.54500       34.96000
H         38.06300       10.44400       28.68600
H         40.60400        9.02400       27.35200
H         44.62500       11.37000       30.14500
H         41.75700        7.63600       25.53700
H         41.59700        4.10000       26.34000
H         46.08500        3.88700       30.31500
H         40.01200        1.60900       26.61600
H         39.77000       -0.77000       28.87900
H         45.61000       -0.63400       30.78800
H         40.16500       -3.18100       29.26700
H         37.25700       -1.68500       32.63000
H         42.81300       -2.55600       35.75100
H         35.27400       -1.12600       34.19500
H         35.48000        2.31100       35.25400
H         40.91200        1.91800       37.77600
H         34.07200        4.12800       36.66000
H         35.12900        6.94500       35.23700
H         40.18400        7.76700       38.05800
H         34.95000        8.56500       32.94200
H         37.19100        9.90000       31.06800
H         41.36600       11.93400       35.09400
