191
Cyclodextrine_ligand_names_6.0.pdb
C         36.09400        4.09700       29.63300
C         36.80600        2.99600       30.09400
C         36.69500        5.44200       29.68600
C         38.04900        3.20800       30.76200
C         38.03900        5.50000       30.10400
C         38.61800        4.41900       30.75300
C         33.00800        3.23100       26.80200
C         33.20700        2.30600       27.95900
H         32.41900        2.45800       28.70600
C         34.64700        2.48000       28.55500
H         35.47300        2.33300       27.87800
C         34.74600        3.91800       29.08400
H         34.03900        4.04800       29.88400
C         31.63000        2.82600       26.26700
H         30.92100        3.28100       26.96600
C         33.05200        4.61100       27.38100
H         32.25700        4.59500       28.13800
H         32.75700        5.36000       26.66800
C         32.85700        0.96300       27.30100
H         32.69500        0.13500       27.94400
H         33.78800        0.67600       26.74000
C         34.37300        4.98000       28.03200
H         35.16100        4.88400       27.23000
H         34.27700        6.00400       28.40400
C         31.73900        1.28500       26.30700
H         31.93300        0.84200       25.28500
H         30.78700        0.95200       26.54900
C         34.93400        1.57900       29.77800
H         34.50600        0.60600       29.53200
H         34.58500        1.75500       30.75600
C         34.02100        3.08200       25.66300
H         33.98300        2.19800       25.04200
H         35.08800        3.14400       26.00700
H         33.80300        3.83200       24.90400
C         36.34500        1.62100       29.90300
H         36.80200        1.04300       29.08800
H         36.49600        1.12900       30.90800
H         36.12000        6.24900       29.11100
H         38.58100        2.33900       31.07600
H         38.53700        6.49700       30.07100
O         31.37200        3.21500       24.95100
O         39.94500        4.60700       31.10000
H         31.45100        4.19400       24.88000
H         40.21000        3.77100       31.50500
C         39.84800       10.79100       31.36400
H         39.31100       11.69400       31.74400
C         39.46200       10.68000       29.85900
H         39.74400       11.59100       29.36100
C         40.06300        9.42600       29.23500
H         39.52900        8.51700       29.65200
C         41.56100        9.30500       29.49600
H         42.02300        9.81800       28.66000
C         41.94700        9.76300       30.89300
H         41.89700        8.84700       31.46000
C         43.42100       10.04900       30.90500
H         44.01000        9.10500       30.88600
H         43.68400       10.45800       31.88900
C         43.09800        7.78500       28.51800
H         43.63900        8.71800       28.25400
C         42.66800        7.07300       27.19200
H         43.49700        6.92200       26.57300
C         42.11400        5.68000       27.42300
H         41.14600        5.75600       27.92900
C         43.11700        4.82500       28.25200
H         43.96100        4.69800       27.58400
C         43.45400        5.64400       29.52000
H         42.51100        5.73800       30.08800
C         44.40400        4.81300       30.38000
H         43.97300        3.93000       30.85700
H         44.76600        5.46200       31.17400
C         42.93000        2.40200       27.87700
H         43.43000        2.84100       26.95600
C         41.82400        1.40900       27.45300
H         42.10400        0.64500       26.79200
C         41.16600        0.71300       28.66300
H         40.54000        1.42200       29.19800
C         42.22100        0.11700       29.53000
H         42.64200       -0.78200       28.97600
C         43.19400        1.21800       29.87700
H         42.54300        1.98800       30.27900
C         44.19500        0.62100       30.88500
H         43.68300        0.57400       31.84800
H         45.05400        1.28400       31.12700
C         41.50800       -1.67600       31.03300
H         42.15500       -2.12000       30.31100
C         40.12900       -2.37400       31.05700
H         40.19000       -3.39400       31.39400
C         39.16000       -1.64400       32.01300
H         38.93800       -0.69200       31.57100
C         39.84500       -1.57600       33.41800
H         39.80000       -2.59500       33.82200
C         41.32300       -1.11800       33.26600
H         41.40000       -0.05800       33.07500
C         42.05900       -1.15000       34.55400
H         41.62900       -0.46300       35.22400
H         43.06300       -0.80900       34.37400
C         38.31900       -1.21400       35.19400
H         38.28700       -2.28100       35.22500
C         36.86000       -0.67300       35.11600
H         36.36500       -1.05800       35.98000
C         36.84600        0.87900       35.20300
H         37.28500        1.29600       34.26800
C         37.47500        1.44400       36.42900
H         36.83100        1.35800       37.31200
C         38.81300        0.69400       36.64300
H         39.56700        1.11700       35.99800
C         39.27300        1.04200       38.05600
H         38.87600        0.31900       38.79500
H         38.95000        1.98500       38.41100
C         37.22800        3.67600       37.35300
H         37.21100        3.02300       38.16700
C         35.88800        4.44100       37.18300
H         35.52100        4.93300       38.08300
C         36.08700        5.48800       36.06000
H         36.22600        5.00500       35.04100
C         37.26700        6.44500       36.41500
H         37.02800        6.98800       37.37000
C         38.46500        5.51300       36.53700
H         38.53900        4.95200       35.56700
C         39.66800        6.41700       36.79800
H         39.88500        7.10100       35.98800
H         40.59900        5.82100       37.10900
C         37.09600        8.63400       35.43700
H         36.36900        8.70500       36.24900
C         36.41900        9.11000       34.13900
H         36.05000       10.14600       34.20000
C         37.36500        9.25700       32.97200
H         37.56700        8.31400       32.70300
C         38.67800        9.94000       33.29700
H         38.50600       10.97700       33.38600
C         39.27200        9.35600       34.63400
H         39.58700        8.31200       34.56600
C         40.62800       10.13200       34.97800
H         41.40700        9.79500       34.26300
H         41.01000        9.94500       35.97900
O         38.04300       10.64800       29.62900
O         39.85700        9.47900       27.79700
O         41.94700        7.93700       29.38200
O         41.19700       10.88200       31.42000
O         43.79000       10.91500       29.91300
O         41.68700        7.90400       26.48800
O         41.81400        5.03400       26.12800
O         42.48500        3.57100       28.67500
O         44.02200        6.96100       29.20100
O         45.53600        4.33200       29.61900
O         40.85200        2.14300       26.71700
O         40.25500       -0.30400       28.18500
O         41.41700       -0.24300       30.73500
O         43.90400        1.75200       28.75000
O         44.70100       -0.65500       30.50500
O         39.52600       -2.57300       29.74900
O         37.84400       -2.29300       32.06400
O         39.14100       -0.58600       34.19300
O         42.10300       -1.81100       32.30000
O         42.07200       -2.44900       35.17400
O         36.22800       -1.24300       33.93800
O         35.48700        1.33700       35.12200
O         37.59300        2.85500       36.23500
O         38.84700       -0.77800       36.46700
O         40.69900        1.06000       38.21500
O         34.82400        3.52500       36.84200
O         34.90800        6.31000       35.94600
O         37.54100        7.29000       35.26400
O         38.30800        4.58600       37.60900
O         39.36400        7.21000       37.94100
O         35.23600        8.31400       33.86200
O         36.67100        9.88900       31.88500
O         39.51100        9.63700       32.13900
O         38.30900        9.41300       35.79000
O         40.50100       11.54500       34.96000
H         38.06300       10.44400       28.68600
H         40.60400        9.02400       27.35200
H         44.62500       11.37000       30.14500
H         41.75700        7.63600       25.53700
H         41.59700        4.10000       26.34000
H         46.08500        3.88700       30.31500
H         40.01200        1.60900       26.61600
H         39.77000       -0.77000       28.87900
H         45.61000       -0.63400       30.78800
H         40.16500       -3.18100       29.26700
H         37.25700       -1.68500       32.63000
H         42.81300       -2.55600       35.75100
H         35.27400       -1.12600       34.19500
H         35.48000        2.31100       35.25400
H         40.91200        1.91800       37.77600
H         34.07200        4.12800       36.66000
H         35.12900        6.94500       35.23700
H         40.18400        7.76700       38.05800
H         34.95000        8.56500       32.94200
H         37.19100        9.90000       31.06800
H         41.36600       11.93400       35.09400
